MATDSS_ver0.96/DSS_Files/Other DSS Files/Old Files/IEEE13Nodeckt_Power_seq_kVA.txt

SYMMETRICAL COMPONENT POWERS BY CIRCUIT ELEMENT (first 3 phases)                                     Excess Power

Element            Term    P1(kW)   Q1(kvar)       P2         Q2      P0      Q0       P_Norm      Q_Norm     P_Emerg    Q_Emerg

"Vsource.SOURCE"    1       -0.0        0.0        0.0        0.0     0.0    -0.0
"Vsource.SOURCE"    2        0.0        0.0        0.0        0.0     0.0     0.0
"Transformer.SUB"   1        0.0       -0.0       -0.0       -0.0     0.0    -0.0        0.0        0.0        0.0        0.0
"Transformer.SUB"   2       -0.0        0.0        0.0        0.0     0.0     0.0
"Transformer.REG1"  1        0.0        0.0        0.0        0.0     0.0     0.0        0.0        0.0        0.0        0.0
"Transformer.REG1"  2        0.0        0.0        0.0        0.0     0.0     0.0
"Transformer.REG2"  1        0.0        0.0        0.0        0.0     0.0     0.0        0.0        0.0        0.0        0.0
"Transformer.REG2"  2        0.0        0.0        0.0        0.0     0.0     0.0
"Transformer.REG3"  1        0.0        0.0        0.0        0.0     0.0     0.0        0.0        0.0        0.0        0.0
"Transformer.REG3"  2        0.0        0.0        0.0        0.0     0.0     0.0
"Transformer.XFM1"  1        0.0        0.0       -0.0       -0.0    -0.0     0.0        0.0        0.0        0.0        0.0
"Transformer.XFM1"  2       -0.0       -0.0        0.0        0.0     0.0    -0.0
"Capacitor.CAP1"    1        0.0     -600.1       -0.0       -0.0    -0.0    -0.0        0.0        0.0        0.0        0.0
"Capacitor.CAP1"    2        0.0        0.0        0.0        0.0     0.0     0.0
"Capacitor.CAP2"    1        0.0        0.0        0.0        0.0     0.0     0.0        0.0        0.0        0.0        0.0
"Capacitor.CAP2"    2        0.0        0.0        0.0        0.0     0.0     0.0
"Line.650632"       1        0.0       -0.0       -0.0       -0.0    -0.0    -0.0        0.0        0.0        0.0        0.0
"Line.650632"       2       -0.0        0.0        0.0        0.0     0.0     0.0
"Line.632670"       1        0.0       -0.0       -0.0       -0.0     0.0    -0.0        0.0        0.0        0.0        0.0
"Line.632670"       2       -0.0        0.0        0.0        0.0    -0.0     0.0
"Line.670671"       1        0.0       -0.0       -0.0       -0.0     0.0    -0.0        0.0        0.0        0.0        0.0
"Line.670671"       2       -0.0        0.0        0.0        0.0     0.0     0.0
"Line.671680"       1        0.0       -0.0        0.0       -0.0    -0.0    -0.0        0.0        0.0        0.0        0.0
"Line.671680"       2        0.0       -0.0        0.0       -0.0     0.0    -0.0
"Line.632633"       1        0.0       -0.0       -0.0       -0.0    -0.0     0.0        0.0        0.0        0.0        0.0
"Line.632633"       2       -0.0       -0.0        0.0        0.0     0.0    -0.0
"Line.632645"       1        0.0        0.0        0.0        0.0     0.0     0.0        0.0        0.0        0.0        0.0
"Line.632645"       2        0.0        0.0        0.0        0.0     0.0     0.0
"Line.645646"       1        0.0        0.0        0.0        0.0     0.0     0.0        0.0        0.0        0.0        0.0
"Line.645646"       2        0.0        0.0        0.0        0.0     0.0     0.0
"Line.692675"       1        0.0       -0.1        0.0       -0.0     0.0     0.0        0.0        0.0        0.0        0.0
"Line.692675"       2       -0.0       -0.1       -0.0        0.0    -0.0    -0.0
"Line.671684"       1        0.0        0.0        0.0        0.0     0.0     0.0        0.0        0.0        0.0        0.0
"Line.671684"       2        0.0        0.0        0.0        0.0     0.0     0.0
"Line.684611"       1        0.0        0.0        0.0        0.0     0.0     0.0        0.0        0.0        0.0        0.0
"Line.684611"       2        0.0        0.0        0.0        0.0     0.0     0.0
"Line.684652"       1        0.0        0.0        0.0        0.0     0.0     0.0        0.0        0.0        0.0        0.0
"Line.684652"       2        0.0        0.0        0.0        0.0     0.0     0.0
"Line.671692"       1        0.0       -0.0       -0.0        0.0    -0.0     0.0        0.0        0.0        0.0        0.0
"Line.671692"       2       -0.0        0.0        0.0       -0.0     0.0    -0.0
"Load.671"          1     1155.0      660.0       -0.0        0.0    -0.0     0.0
"Load.634A"         1        0.0        0.0        0.0        0.0     0.0     0.0
"Load.634B"         1        0.0        0.0        0.0        0.0     0.0     0.0
"Load.634C"         1        0.0        0.0        0.0        0.0     0.0     0.0
"Load.645"          1        0.0        0.0        0.0        0.0     0.0     0.0
"Load.646"          1        0.0        0.0        0.0        0.0     0.0     0.0
"Load.692"          1        0.0        0.0        0.0        0.0     0.0     0.0
"Load.675A"         1        0.0        0.0        0.0        0.0     0.0     0.0
"Load.675B"         1        0.0        0.0        0.0        0.0     0.0     0.0
"Load.675C"         1        0.0        0.0        0.0        0.0     0.0     0.0
"Load.611"          1        0.0        0.0        0.0        0.0     0.0     0.0
"Load.652"          1        0.0        0.0        0.0        0.0     0.0     0.0
"Load.670A"         1        0.0        0.0        0.0        0.0     0.0     0.0
"Load.670B"         1        0.0        0.0        0.0        0.0     0.0     0.0
"Load.670C"         1        0.0        0.0        0.0        0.0     0.0     0.0

Total Circuit Losses =   -0.0 +j   -0.3
